24
Model[1]: Jmol 14.32.82  2022-12-16 09:27
C      -0.01280      1.46320     -0.69980
C      -1.08540      1.24850      0.36970
C      -1.90100     -0.00090      0.03070
C      -1.08420     -1.24940      0.36980
C      -0.01140     -1.46320     -0.69980
C       1.37290     -1.24870     -0.08470
C       1.35010      0.00060      0.79860
C       1.37170      1.24990     -0.08460
H      -0.16260      0.75240     -1.51240
H      -0.08510      2.47920     -1.08800
H      -0.60880      1.11870      1.34140
H      -1.74530      2.11550      0.40160
H      -2.82350     -0.00130      0.61130
H      -2.14060     -0.00100     -1.03260
H      -0.60760     -1.11910      1.34140
H      -1.74320     -2.11710      0.40190
H      -0.08290     -2.47920     -1.08800
H      -0.16190     -0.75250     -1.51240
H       1.64060     -2.11580      0.51910
H       2.10740     -1.11850     -0.87940
H       0.44470      0.00010      1.40540
H       2.22410      0.00100      1.45000
H       2.10640      1.12040     -0.87930
H       1.63850      2.11720      0.51930
