15
Model[1]: Jmol 14.32.82  2022-12-16 09:27
C      -1.04140      0.76960      0.07320
C      -1.04170     -0.76920      0.07320
C       0.41120     -1.21010     -0.19930
C       1.26640     -0.00020      0.25220
C       0.41170      1.21000     -0.19930
H      -1.69830      1.14310     -0.71230
H      -1.36900      1.14300      1.04340
H      -1.36950     -1.14250      1.04340
H      -1.69880     -1.14240     -0.71230
H       0.65870     -2.09330      0.38970
H       0.55770     -1.40560     -1.26160
H       1.39460     -0.00030      1.33460
H       2.23270     -0.00040     -0.25230
H       0.55820      1.40540     -1.26160
H       0.65950      2.09300      0.38970
