150
Model[1]: Jmol 14.32.82  2022-12-16 09:27
C       9.30550      0.89570      0.10620
C      10.07350     -0.29610      0.68120
C       9.87330     -1.51530     -0.22110
C       8.63040     -2.28520      0.22990
C       8.68120     -3.70830     -0.32970
C       7.62890     -4.57000      0.37100
C       7.32670     -5.80190     -0.48470
C       6.69990     -6.88940      0.39010
C       5.61990     -7.62470     -0.40600
C       4.81860     -8.52720      0.53440
C       3.73220     -9.25500     -0.25990
C       2.36680     -8.64850      0.06960
C       1.26670     -9.65980     -0.25940
C      -0.09060     -8.95360     -0.26350
C      -1.20590     -9.99160     -0.12410
C      -2.37770     -9.38060      0.64690
C      -3.51580     -9.06050     -0.32430
C      -4.72450     -8.54410      0.45880
C      -5.62520     -7.72960     -0.47180
C      -6.76110     -7.10180      0.33850
C      -7.38150     -5.95260     -0.45850
C      -8.33430     -5.16360      0.44180
C      -8.93150     -3.99620     -0.34660
C      -8.79320     -2.70770      0.46680
C      -9.62300     -1.60070     -0.18650
C      -8.82920     -0.29280     -0.17290
C      -9.77150      0.87240      0.13610
C      -9.03780      2.19560     -0.09110
C     -10.04200      3.34920     -0.04910
C      -9.32410      4.63540      0.36500
C      -8.06370      4.81210     -0.48420
C      -7.02150      5.60340      0.30850
C      -6.53680      6.78930     -0.52790
C      -5.81410      7.78980      0.37630
C      -4.66590      8.44020     -0.39800
C      -3.52820      8.77990      0.56700
C      -2.34400      9.34540     -0.21960
C      -1.04220      9.02310      0.51680
C       0.14950      9.37690     -0.37510
C       1.38100      8.59400      0.08460
C       2.64080      9.41810     -0.18890
C       3.81570      8.82870      0.59410
C       4.81430      8.20080     -0.38050
C       5.59870      7.09810      0.33340
C       6.86120      6.77070     -0.46650
C       7.56180      5.56250      0.15830
C       7.06700      4.28120     -0.51570
C       7.89460      3.09280     -0.02220
C       9.37860      3.36330     -0.27810
C      10.19830      2.13790      0.13090
H       9.01370      0.67830     -0.92130
H       8.41390      1.07710      0.70640
H      11.13480     -0.05320      0.73370
H       9.70210     -0.51930      1.68140
H       9.74280     -1.18670     -1.25220
H      10.74660     -2.16410     -0.15440
H       8.60220     -2.32380      1.31880
H       7.73710     -1.78130     -0.13920
H       8.47760     -3.68510     -1.40030
H       9.67080     -4.13140     -0.15720
H       8.00720     -4.88660      1.34300
H       6.71640     -3.98970      0.50760
H       6.63260     -5.53040     -1.28000
H       8.25220     -6.17620     -0.92230
H       7.46980     -7.59700      0.69760
H       6.25280     -6.43260      1.27310
H       4.95200     -6.89830     -0.86900
H       6.08920     -8.23190     -1.18000
H       5.48530     -9.25810      0.99210
H       4.35510     -7.92090      1.31260
H       3.92920     -9.14860     -1.32660
H       3.73400    -10.31200      0.00620
H       2.32610     -8.39960      1.13000
H       2.21830     -7.74500     -0.52170
H       1.45370    -10.09330     -1.24190
H       1.26300    -10.44980      0.49160
H      -0.13870     -8.25410      0.57100
H      -0.21470     -8.41050     -1.20040
H      -1.54290    -10.29810     -1.11430
H      -0.82880    -10.85990      0.41630
H      -2.72860    -10.08970      1.39670
H      -2.05090     -8.46420      1.13840
H      -3.18730     -8.29760     -1.03010
H      -3.79390     -9.96310     -0.86830
H      -5.28520     -9.38840      0.85990
H      -4.38320     -7.91220      1.27880
H      -5.03970     -6.94250     -0.94700
H      -6.04320     -8.38370     -1.23700
H      -7.52200     -7.85540      0.54180
H      -6.36730     -6.71980      1.28040
H      -6.59220     -5.29280     -0.81890
H      -7.93380     -6.35570     -1.30730
H      -9.13570     -5.81810      0.78470
H      -7.78640     -4.77870      1.30190
H      -8.40100     -3.88750     -1.29250
H      -9.98600     -4.19120     -0.54170
H      -9.15080     -2.87880      1.48210
H      -7.74580     -2.40740      0.49630
H      -9.85060     -1.87680     -1.21610
H     -10.55200     -1.46770      0.36790
H      -8.05430     -0.34600      0.59180
H      -8.36740     -0.13780     -1.14800
H     -10.64010      0.82110     -0.52030
H     -10.09670      0.81100      1.17460
H      -8.29060      2.33570      0.69000
H      -8.54690      2.17650     -1.06420
H     -10.48450      3.48190     -1.03630
H     -10.82620      3.12220      0.67310
H      -9.98730      5.48690      0.21240
H      -9.04750      4.57440      1.41750
H      -7.65850      3.83330     -0.74110
H      -8.31340      5.35290     -1.39700
H      -7.46880      5.96940      1.23270
H      -6.17680      4.95640      0.54510
H      -5.85180      6.43490     -1.29810
H      -7.39150      7.27590     -0.99790
H      -6.51520      8.55880      0.70060
H      -5.41610      7.27010      1.24790
H      -4.30300      7.74890     -1.15860
H      -5.02140      9.35290     -0.87640
H      -3.87260      9.52120      1.28810
H      -3.21710      7.87780      1.09370
H      -2.32020      8.89690     -1.21280
H      -2.45150     10.42610     -0.31140
H      -0.99210      9.60430      1.43750
H      -1.01380      7.96010      0.75620
H      -0.08070      9.11800     -1.40860
H       0.35130     10.44580     -0.30470
H       1.30450      8.39090      1.15270
H       1.43740      7.65220     -0.46120
H       2.86620      9.39430     -1.25510
H       2.47580     10.44890      0.12460
H       4.30840      9.61940      1.15990
H       3.44870      8.06540      1.28020
H       4.27650      7.77430     -1.22720
H       5.50450      8.96560     -0.73640
H       5.87840      7.43840      1.33040
H       4.97850      6.20550      0.41480
H       6.58920      6.54050     -1.49650
H       7.53360      7.62850     -0.45130
H       8.63880      5.65430      0.01790
H       7.33640      5.52280      1.22400
H       6.01780      4.12170     -0.26690
H       7.17390      4.37460     -1.59650
H       7.72960      2.95390      1.04630
H       7.59200      2.19230     -0.55660
H       9.53330      3.56680     -1.33770
H       9.69710      4.22550      0.30770
H      10.59130      2.28300      1.13720
H      11.02540      2.00480     -0.56650
