62
Model[1]: Jmol 14.32.82  2022-12-16 09:27
C      11.87020     -0.37070     -0.00000
C      10.61570      0.50510      0.00000
C       9.37180     -0.38570     -0.00000
C       8.11730      0.49020      0.00000
C       6.87330     -0.40060     -0.00000
C       5.61880      0.47530      0.00000
C       4.37490     -0.41550     -0.00000
C       3.12040      0.46030      0.00000
C       1.87650     -0.43050     -0.00000
C       0.62200      0.44540      0.00000
C      -0.62200     -0.44540      0.00000
C      -1.87650      0.43050     -0.00000
C      -3.12040     -0.46030      0.00000
C      -4.37490      0.41550     -0.00000
C      -5.61880     -0.47530      0.00000
C      -6.87330      0.40060     -0.00000
C      -8.11730     -0.49020      0.00000
C      -9.37180      0.38570     -0.00000
C     -10.61570     -0.50510      0.00000
C     -11.87020      0.37070     -0.00000
H      11.87400     -1.00000      0.89000
H      11.87400     -1.00000     -0.89000
H      12.75640      0.26390      0.00000
H      10.61190      1.13440      0.89000
H      10.61190      1.13440     -0.89000
H       9.37550     -1.01500     -0.89000
H       9.37550     -1.01500      0.89000
H       8.11350      1.11950      0.89000
H       8.11350      1.11950     -0.89000
H       6.87710     -1.02990     -0.89000
H       6.87710     -1.02990      0.89000
H       5.61510      1.10460      0.89000
H       5.61510      1.10460     -0.89000
H       4.37870     -1.04480     -0.89000
H       4.37870     -1.04480      0.89000
H       3.11660      1.08960      0.89000
H       3.11660      1.08960     -0.89000
H       1.88020     -1.05980     -0.89000
H       1.88020     -1.05980      0.89000
H       0.61820      1.07470      0.89000
H       0.61820      1.07470     -0.89000
H      -0.61820     -1.07470     -0.89000
H      -0.61820     -1.07470      0.89000
H      -1.88020      1.05980      0.89000
H      -1.88020      1.05980     -0.89000
H      -3.11660     -1.08960     -0.89000
H      -3.11660     -1.08960      0.89000
H      -4.37870      1.04480      0.89000
H      -4.37870      1.04480     -0.89000
H      -5.61510     -1.10460     -0.89000
H      -5.61510     -1.10460      0.89000
H      -6.87710      1.02990      0.89000
H      -6.87710      1.02990     -0.89000
H      -8.11350     -1.11950     -0.89000
H      -8.11350     -1.11950      0.89000
H      -9.37550      1.01500      0.89000
H      -9.37550      1.01500     -0.89000
H     -10.61190     -1.13440     -0.89000
H     -10.61190     -1.13440      0.89000
H     -11.87400      1.00000     -0.89000
H     -12.75640     -0.26390      0.00000
H     -11.87400      1.00000      0.89000
