302
Model[1]: Jmol 14.32.82  2022-12-16 09:27
C      61.83750     -0.42670     -0.00000
C      60.58800      0.45630      0.00000
C      59.33900     -0.42730     -0.00000
C      58.08950      0.45570      0.00000
C      56.84050     -0.42790     -0.00000
C      55.59110      0.45510      0.00000
C      54.34200     -0.42850     -0.00000
C      53.09260      0.45450      0.00000
C      51.84360     -0.42910     -0.00000
C      50.59410      0.45390      0.00000
C      49.34510     -0.42980     -0.00000
C      48.09560      0.45330      0.00000
C      46.84660     -0.43040     -0.00000
C      45.59710      0.45270      0.00000
C      44.34810     -0.43100     -0.00000
C      43.09870      0.45210      0.00000
C      41.84960     -0.43160     -0.00000
C      40.60020      0.45150      0.00000
C      39.35120     -0.43220     -0.00000
C      38.10170      0.45090      0.00000
C      36.85270     -0.43280     -0.00000
C      35.60320      0.45030      0.00000
C      34.35420     -0.43340     -0.00000
C      33.10470      0.44970      0.00000
C      31.85570     -0.43400     -0.00000
C      30.60630      0.44910      0.00000
C      29.35720     -0.43460     -0.00000
C      28.10780      0.44850      0.00000
C      26.85880     -0.43520     -0.00000
C      25.60930      0.44790      0.00000
C      24.36030     -0.43580     -0.00000
C      23.11080      0.44730      0.00000
C      21.86180     -0.43640     -0.00000
C      20.61230      0.44670      0.00000
C      19.36330     -0.43700     -0.00000
C      18.11390      0.44600      0.00000
C      16.86480     -0.43760     -0.00000
C      15.61540      0.44540      0.00000
C      14.36640     -0.43820     -0.00000
C      13.11690      0.44480      0.00000
C      11.86790     -0.43880     -0.00000
C      10.61840      0.44420      0.00000
C       9.36940     -0.43940     -0.00000
C       8.12000      0.44360      0.00000
C       6.87090     -0.44000     -0.00000
C       5.62150      0.44300      0.00000
C       4.37240     -0.44060     -0.00000
C       3.12300      0.44240      0.00000
C       1.87400     -0.44120     -0.00000
C       0.62450      0.44180      0.00000
C      -0.62450     -0.44180      0.00000
C      -1.87400      0.44120     -0.00000
C      -3.12300     -0.44240      0.00000
C      -4.37240      0.44060     -0.00000
C      -5.62150     -0.44300      0.00000
C      -6.87090      0.44000     -0.00000
C      -8.12000     -0.44360      0.00000
C      -9.36940      0.43940     -0.00000
C     -10.61840     -0.44420      0.00000
C     -11.86790      0.43880     -0.00000
C     -13.11690     -0.44480      0.00000
C     -14.36640      0.43820     -0.00000
C     -15.61540     -0.44540      0.00000
C     -16.86480      0.43760     -0.00000
C     -18.11390     -0.44600      0.00000
C     -19.36330      0.43700     -0.00000
C     -20.61230     -0.44670      0.00000
C     -21.86180      0.43640     -0.00000
C     -23.11080     -0.44730      0.00000
C     -24.36030      0.43580     -0.00000
C     -25.60930     -0.44790      0.00000
C     -26.85880      0.43520     -0.00000
C     -28.10780     -0.44850      0.00000
C     -29.35720      0.43460     -0.00000
C     -30.60630     -0.44910      0.00000
C     -31.85570      0.43400     -0.00000
C     -33.10470     -0.44970      0.00000
C     -34.35420      0.43340     -0.00000
C     -35.60320     -0.45030      0.00000
C     -36.85270      0.43280     -0.00000
C     -38.10170     -0.45090      0.00000
C     -39.35120      0.43220     -0.00000
C     -40.60020     -0.45150      0.00000
C     -41.84960      0.43160     -0.00000
C     -43.09870     -0.45210      0.00000
C     -44.34810      0.43100     -0.00000
C     -45.59710     -0.45270      0.00000
C     -46.84660      0.43040     -0.00000
C     -48.09560     -0.45330      0.00000
C     -49.34510      0.42980     -0.00000
C     -50.59410     -0.45390      0.00000
C     -51.84360      0.42910     -0.00000
C     -53.09260     -0.45450      0.00000
C     -54.34200      0.42850     -0.00000
C     -55.59110     -0.45510      0.00000
C     -56.84050      0.42790     -0.00000
C     -58.08950     -0.45570      0.00000
C     -59.33900      0.42730     -0.00000
C     -60.58800     -0.45630      0.00000
C     -61.83750      0.42670     -0.00000
H      61.83760     -1.05600      0.89000
H      61.83760     -1.05600     -0.89000
H      62.72730      0.20280      0.00000
H      60.58790      1.08560      0.89000
H      60.58790      1.08560     -0.89000
H      59.33910     -1.05660     -0.89000
H      59.33910     -1.05670      0.89000
H      58.08940      1.08500      0.89000
H      58.08940      1.08500     -0.89000
H      56.84070     -1.05720     -0.89000
H      56.84070     -1.05730      0.89000
H      55.59090      1.08440      0.89000
H      55.59090      1.08440     -0.89000
H      54.34220     -1.05790     -0.89000
H      54.34220     -1.05790      0.89000
H      53.09240      1.08380      0.89000
H      53.09240      1.08380     -0.89000
H      51.84370     -1.05850     -0.89000
H      51.84370     -1.05850      0.89000
H      50.59390      1.08320      0.89000
H      50.59390      1.08320     -0.89000
H      49.34520     -1.05910     -0.89000
H      49.34520     -1.05910      0.89000
H      48.09550      1.08260      0.89000
H      48.09550      1.08260     -0.89000
H      46.84670     -1.05970     -0.89000
H      46.84670     -1.05970      0.89000
H      45.59700      1.08200      0.89000
H      45.59700      1.08200     -0.89000
H      44.34830     -1.06030     -0.89000
H      44.34830     -1.06030      0.89000
H      43.09850      1.08140      0.89000
H      43.09850      1.08140     -0.89000
H      41.84980     -1.06090     -0.89000
H      41.84980     -1.06090      0.89000
H      40.60000      1.08080      0.89000
H      40.60000      1.08080     -0.89000
H      39.35130     -1.06150     -0.89000
H      39.35130     -1.06150      0.89000
H      38.10160      1.08020      0.89000
H      38.10160      1.08020     -0.89000
H      36.85280     -1.06210     -0.89000
H      36.85280     -1.06210      0.89000
H      35.60310      1.07960      0.89000
H      35.60310      1.07960     -0.89000
H      34.35440     -1.06270     -0.89000
H      34.35440     -1.06270      0.89000
H      33.10460      1.07900      0.89000
H      33.10460      1.07900     -0.89000
H      31.85590     -1.06330     -0.89000
H      31.85590     -1.06330      0.89000
H      30.60610      1.07840      0.89000
H      30.60610      1.07840     -0.89000
H      29.35740     -1.06390     -0.89000
H      29.35740     -1.06390      0.89000
H      28.10760      1.07780      0.89000
H      28.10760      1.07780     -0.89000
H      26.85890     -1.06450     -0.89000
H      26.85890     -1.06450      0.89000
H      25.60920      1.07720      0.89000
H      25.60920      1.07720     -0.89000
H      24.36040     -1.06510     -0.89000
H      24.36040     -1.06510      0.89000
H      23.11070      1.07660      0.89000
H      23.11070      1.07660     -0.89000
H      21.86200     -1.06570     -0.89000
H      21.86200     -1.06570      0.89000
H      20.61220      1.07600      0.89000
H      20.61220      1.07600     -0.89000
H      19.36350     -1.06630     -0.89000
H      19.36350     -1.06630      0.89000
H      18.11370      1.07540      0.89000
H      18.11370      1.07540     -0.89000
H      16.86500     -1.06690     -0.89000
H      16.86500     -1.06690      0.89000
H      15.61520      1.07480      0.89000
H      15.61520      1.07480     -0.89000
H      14.36650     -1.06750     -0.89000
H      14.36650     -1.06750      0.89000
H      13.11680      1.07420      0.89000
H      13.11680      1.07420     -0.89000
H      11.86800     -1.06810     -0.89000
H      11.86800     -1.06810      0.89000
H      10.61830      1.07350      0.89000
H      10.61830      1.07360     -0.89000
H       9.36960     -1.06870     -0.89000
H       9.36960     -1.06870      0.89000
H       8.11980      1.07290      0.89000
H       8.11980      1.07290     -0.89000
H       6.87110     -1.06930     -0.89000
H       6.87110     -1.06930      0.89000
H       5.62130      1.07230      0.89000
H       5.62130      1.07230     -0.89000
H       4.37260     -1.06990     -0.89000
H       4.37260     -1.06990      0.89000
H       3.12280      1.07170      0.89000
H       3.12280      1.07170     -0.89000
H       1.87410     -1.07050     -0.89000
H       1.87410     -1.07050      0.89000
H       0.62440      1.07110      0.89000
H       0.62440      1.07110     -0.89000
H      -0.62440     -1.07110     -0.89000
H      -0.62440     -1.07110      0.89000
H      -1.87410      1.07050      0.89000
H      -1.87410      1.07050     -0.89000
H      -3.12280     -1.07170     -0.89000
H      -3.12280     -1.07170      0.89000
H      -4.37260      1.06990      0.89000
H      -4.37260      1.06990     -0.89000
H      -5.62130     -1.07230     -0.89000
H      -5.62130     -1.07230      0.89000
H      -6.87110      1.06930      0.89000
H      -6.87110      1.06930     -0.89000
H      -8.11980     -1.07290     -0.89000
H      -8.11980     -1.07290      0.89000
H      -9.36960      1.06870      0.89000
H      -9.36960      1.06870     -0.89000
H     -10.61830     -1.07360     -0.89000
H     -10.61830     -1.07350      0.89000
H     -11.86800      1.06810      0.89000
H     -11.86800      1.06810     -0.89000
H     -13.11680     -1.07420     -0.89000
H     -13.11680     -1.07420      0.89000
H     -14.36650      1.06750      0.89000
H     -14.36650      1.06750     -0.89000
H     -15.61520     -1.07480     -0.89000
H     -15.61520     -1.07480      0.89000
H     -16.86500      1.06690      0.89000
H     -16.86500      1.06690     -0.89000
H     -18.11370     -1.07540     -0.89000
H     -18.11370     -1.07540      0.89000
H     -19.36350      1.06630      0.89000
H     -19.36350      1.06630     -0.89000
H     -20.61220     -1.07600     -0.89000
H     -20.61220     -1.07600      0.89000
H     -21.86200      1.06570      0.89000
H     -21.86200      1.06570     -0.89000
H     -23.11070     -1.07660     -0.89000
H     -23.11070     -1.07660      0.89000
H     -24.36040      1.06510      0.89000
H     -24.36040      1.06510     -0.89000
H     -25.60920     -1.07720     -0.89000
H     -25.60920     -1.07720      0.89000
H     -26.85890      1.06450      0.89000
H     -26.85890      1.06450     -0.89000
H     -28.10760     -1.07780     -0.89000
H     -28.10760     -1.07780      0.89000
H     -29.35740      1.06390      0.89000
H     -29.35740      1.06390     -0.89000
H     -30.60610     -1.07840     -0.89000
H     -30.60610     -1.07840      0.89000
H     -31.85590      1.06330      0.89000
H     -31.85590      1.06330     -0.89000
H     -33.10460     -1.07900     -0.89000
H     -33.10460     -1.07900      0.89000
H     -34.35440      1.06270      0.89000
H     -34.35440      1.06270     -0.89000
H     -35.60310     -1.07960     -0.89000
H     -35.60310     -1.07960      0.89000
H     -36.85280      1.06210      0.89000
H     -36.85280      1.06210     -0.89000
H     -38.10160     -1.08020     -0.89000
H     -38.10160     -1.08020      0.89000
H     -39.35130      1.06150      0.89000
H     -39.35130      1.06150     -0.89000
H     -40.60000     -1.08080     -0.89000
H     -40.60000     -1.08080      0.89000
H     -41.84980      1.06090      0.89000
H     -41.84980      1.06090     -0.89000
H     -43.09850     -1.08140     -0.89000
H     -43.09850     -1.08140      0.89000
H     -44.34830      1.06030      0.89000
H     -44.34830      1.06030     -0.89000
H     -45.59700     -1.08200     -0.89000
H     -45.59700     -1.08200      0.89000
H     -46.84670      1.05970      0.89000
H     -46.84670      1.05970     -0.89000
H     -48.09550     -1.08260     -0.89000
H     -48.09550     -1.08260      0.89000
H     -49.34520      1.05910      0.89000
H     -49.34520      1.05910     -0.89000
H     -50.59390     -1.08320     -0.89000
H     -50.59390     -1.08320      0.89000
H     -51.84370      1.05850      0.89000
H     -51.84370      1.05850     -0.89000
H     -53.09240     -1.08380     -0.89000
H     -53.09240     -1.08380      0.89000
H     -54.34220      1.05790      0.89000
H     -54.34220      1.05790     -0.89000
H     -55.59090     -1.08440     -0.89000
H     -55.59090     -1.08440      0.89000
H     -56.84070      1.05730      0.89000
H     -56.84070      1.05720     -0.89000
H     -58.08940     -1.08500     -0.89000
H     -58.08940     -1.08500      0.89000
H     -59.33910      1.05670      0.89000
H     -59.33910      1.05660     -0.89000
H     -60.58790     -1.08560     -0.89000
H     -60.58790     -1.08560      0.89000
H     -62.72730     -0.20280      0.00000
H     -61.83760      1.05600      0.89000
H     -61.83760      1.05600     -0.89000
