113
Model[1]: Jmol 14.32.82  2022-12-16 09:27
C       5.32740     -3.72820      0.00000
C       4.25170     -2.31500      0.00000
C       6.48210     -1.39110      0.00000
C       6.09940     -2.31500      0.00000
C       4.50590     -4.36860      0.00000
C       3.41560     -2.93630      0.00000
C       4.25170     -0.46720      0.00000
C       6.88040      0.31380      0.00000
C       8.03580      2.69390      0.00000
C       7.77700      3.65980      0.00000
C       8.22070     -4.43630      0.00000
C       6.99600     -5.66100      0.00000
C       8.92780     -5.14340      0.00000
C       7.70310     -6.36810      0.00000
C       8.66900     -6.10930      0.00000
C       9.45000      4.10810      0.00000
C       8.22530      5.33290      0.00000
C      10.15710      4.81520      0.00000
C       8.93240      6.04000      0.00000
C       9.89830      5.78120      0.00000
C       5.32750      6.10930      0.00000
C       4.87920      4.43630      0.00000
C       4.36160      6.36810      0.00000
C       3.91330      4.69510      0.00000
C       3.65450      5.66100      0.00000
C       3.32780     -1.93230      0.00000
C       6.39710      0.64360      0.00000
C       7.21020     -0.16960      0.00000
C       5.68970      1.56240      0.00000
C       7.96960     -3.86440      0.00000
C       3.09630      1.91290      0.00000
H       7.79210     -0.85420      0.00000
H       2.00000     -2.91460      0.00000
H       9.16220      1.83620      0.00000
H       6.37260      3.48020      0.00000
C       7.25480     -4.69510      0.00000
C       8.48410      4.36690      0.00000
C       5.58630      5.14340      0.00000
O       2.86900     -1.39110      0.00000
O       7.83150     -2.87400      0.00000
O       5.58180     -4.24680      0.00000
O       4.76930      1.46460      0.00000
O       6.36280      2.24560      0.00000
O       7.25930      5.59170      0.00000
C       5.97660     -4.55380      0.00000
C       3.54360     -3.97000      0.00000
O       7.48210     -1.39110      0.00000
O       2.49620     -2.54290      0.00000
O       9.00170      2.43510      0.00000
C       7.04280     -3.48880      0.00000
C       6.54770     -3.98800      0.00000
C       3.80340      1.20580      0.00000
C       7.32870      1.98680      0.00000
C       6.55220      4.88460      0.00000
O       6.11600     -3.11330      0.00000
O       6.80650     -3.02210      0.00000
O       3.54460      0.23990      0.00000
O       7.58750      1.02090      0.00000
O       5.14830     -5.19950      0.00000
N       6.81110      3.91870      0.00000
C       7.15520     -0.64940      0.00000
C       5.17550     -2.69770      0.00000
C       3.86900     -1.39110      0.00000
C       5.91720      0.58860      0.00000
C       6.09940     -0.46720      0.00000
C       5.17550     -0.08450      0.00000
H       5.71490     -3.00350      0.00000
H       5.97850     -2.92310      0.00000
H       3.98970     -5.04390      0.00000
H       3.34300     -2.32050      0.00000
H       4.37260      0.14090      0.00000
H       6.35850     -5.04220      0.00000
H       6.46450     -4.17120      0.00000
H       2.92430     -3.93980      0.00000
H       3.40790     -4.57500      0.00000
H       7.52970     -1.14350      0.00000
H       7.70990     -0.37230      0.00000
H       7.48060      0.15810      0.00000
H       3.56500     -1.35950      0.00000
H       2.75500     -1.69500      0.00000
H       3.09050     -2.50510      0.00000
H       6.99590      0.48310      0.00000
H       6.55750      1.24250      0.00000
H       5.79820      0.80410      0.00000
H       7.37070     -0.76840      0.00000
H       7.80910     -0.00910      0.00000
H       7.04980      0.42930      0.00000
H       6.29350      1.70340      0.00000
H       5.54870      2.16610      0.00000
H       5.08600      1.42130      0.00000
H       7.73680     -4.43900      0.00000
H       8.54430     -4.09720      0.00000
H       8.20250     -3.28980      0.00000
H       8.47420      3.13230      0.00000
H       8.38120     -3.83740      0.00000
H       6.39710     -5.82150      0.00000
H       3.53470      2.35130      0.00000
H       2.65790      2.35130      0.00000
H       2.65790      1.47450      0.00000
H       7.33860      3.22140      0.00000
H       9.52670     -4.98290      0.00000
H       7.54260     -6.96700      0.00000
H       9.10740     -6.54770      0.00000
H       9.61050      3.50920      0.00000
H       7.62640      5.49330      0.00000
H      10.75600      4.65480      0.00000
H       8.77190      6.63880      0.00000
H      10.33670      6.21960      0.00000
H       5.76590      6.54770      0.00000
H       5.03970      3.83740      0.00000
H       4.20110      6.96700      0.00000
H       3.47490      4.25670      0.00000
H       3.05560      5.82150      0.00000
